* Totem-Pole con Filtrado Dual (Electrolítico + Cerámico)
* Q1, Q2: Inversores | Q3, Q4: Salida Totem-Pole

* --- Fuente de 5V con Ruido Combinado ---
Vraw raw 0 DC 5V
Vnoise_hf noise_node raw SIN(0 0.4 100k) ; Ruido rápido de 50kHz
Rsource noise_node vcc_filt 1          ; Resistencia de línea

* --- Punto 1: Pareja de Desacoplo ---
C_electrolytic vcc_filt 0 0u
C_ceramic      vcc_filt 0 200n

* Entrada PWM 3.3V (10kHz)
Vpwm input 0 PULSE(0 3.3 1u 10n 10n 50u 100u)

* --- Lógica de Control ---
R1 input b1 1k
Q1 c1 b1 0 Q2N3904
R2 vcc_filt c1 1k
R3 c1 b2 1k
Q2 c2 b2 0 Q2N3904
R4 vcc_filt c2 1k

* --- Etapa Totem-Pole ---
Q3 vcc_filt c2 out_node Q2N3904
Q4 0 c2 out_node Q2N3906

* --- Carga ---
Rload out_node 0 5k

.model Q2N3904 NPN(Is=6.734f Bf=416.4)
.model Q2N3906 PNP(Is=1.41f Bf=180.7)

.tran 0.1u 1m

.control
run
* Comparamos el voltaje de la fuente ruidosa vs el filtrado
plot v(noise_node) v(vcc_filt) title 'Filtrado Dual: Fuente vs Linea Filtrada'
* Vemos el PWM resultante
plot v(out_node) title 'Salida PWM con Filtrado Dual'
.endc
.end
