* Simulación de Totem-Pole con Ruido en la Fuente de 5V
* Q1, Q2: Inversores | Q3, Q4: Totem-Pole

* Fuente de 5V con Rizado (5V DC + 0.9V Senoidal a 1kHz)
Vcc_base vcc_noisy 0 DC 5V
Vripple vcc vcc_noisy SIN(0 0.9 1k) 

* Entrada PWM 3.3V (10kHz)
Vpwm input 0 PULSE(0 3.3 1u 10n 10n 50u 100u)

* --- Etapas de Inversión ---
R1 input b1 1k
Q1 c1 b1 0 Q2N3904
R2 vcc c1 1k

R3 c1 b2 1k
Q2 c2 b2 0 Q2N3904
R4 vcc c2 1k

* --- Etapa Totem-Pole ---
Q3 vcc c2 out_node Q2N3904
Q4 0 c2 out_node Q2N3906

* --- Carga ---
Rload out_node 0 5k

* Modelos
.model Q2N3904 NPN(Is=6.734f Xti=3 Eg=1.11 Vaf=74.03 Bf=416.4 Rc=1)
.model Q2N3906 PNP(Is=1.41f Xti=3 Eg=1.11 Vaf=18.7 Bf=180.7 Rc=1)

.tran 1u 2m

.control
run
* Comparamos el voltaje de la fuente con la salida
plot v(vcc) v(out_node) title 'Efecto del Ruido de Fuente en la Salida PWM'
.endc
.end
